uncertain_grid_restoration/dss/ieee33/Loads.dss
New Load.Load2 bus1=2 phases=3 kv=12.66 kw=100 kvar=60 model=1
New Load.Load3 bus1=3 phases=3 kv=12.66 kw=90 kvar=40 model=1
New Load.Load4 bus1=4 phases=3 kv=12.66 kw=120 kvar=80 model=1
New Load.Load5 bus1=5 phases=3 kv=12.66 kw=60 kvar=30 model=1
New Load.Load6 bus1=6 phases=3 kv=12.66 kw=60 kvar=20 model=1
New Load.Load7 bus1=7 phases=3 kv=12.66 kw=200 kvar=100 model=1
New Load.Load8 bus1=8 phases=3 kv=12.66 kw=200 kvar=100 model=1
New Load.Load9 bus1=9 phases=3 kv=12.66 kw=60 kvar=20 model=1
New Load.Load10 bus1=10 phases=3 kv=12.66 kw=60 kvar=20 model=1
New Load.Load11 bus1=11 phases=3 kv=12.66 kw=45 kvar=30 model=1
New Load.Load12 bus1=12 phases=3 kv=12.66 kw=60 kvar=35 model=1
New Load.Load13 bus1=13 phases=3 kv=12.66 kw=60 kvar=35 model=1
New Load.Load14 bus1=14 phases=3 kv=12.66 kw=120 kvar=80 model=1
New Load.Load15 bus1=15 phases=3 kv=12.66 kw=60 kvar=10 model=1
New Load.Load16 bus1=16 phases=3 kv=12.66 kw=60 kvar=20 model=1
New Load.Load17 bus1=17 phases=3 kv=12.66 kw=60 kvar=20 model=1
New Load.Load18 bus1=18 phases=3 kv=12.66 kw=90 kvar=40 model=1
New Load.Load19 bus1=19 phases=3 kv=12.66 kw=90 kvar=40 model=1
New Load.Load20 bus1=20 phases=3 kv=12.66 kw=90 kvar=40 model=1
New Load.Load21 bus1=21 phases=3 kv=12.66 kw=90 kvar=40 model=1
New Load.Load22 bus1=22 phases=3 kv=12.66 kw=90 kvar=40 model=1
New Load.Load23 bus1=23 phases=3 kv=12.66 kw=90 kvar=50 model=1
New Load.Load24 bus1=24 phases=3 kv=12.66 kw=420 kvar=200 model=1
New Load.Load25 bus1=25 phases=3 kv=12.66 kw=420 kvar=200 model=1
New Load.Load26 bus1=26 phases=3 kv=12.66 kw=60 kvar=25 model=1
New Load.Load27 bus1=27 phases=3 kv=12.66 kw=60 kvar=25 model=1
New Load.Load28 bus1=28 phases=3 kv=12.66 kw=60 kvar=20 model=1
New Load.Load29 bus1=29 phases=3 kv=12.66 kw=120 kvar=70 model=1
New Load.Load30 bus1=30 phases=3 kv=12.66 kw=200 kvar=600 model=1
New Load.Load31 bus1=31 phases=3 kv=12.66 kw=150 kvar=70 model=1
New Load.Load32 bus1=32 phases=3 kv=12.66 kw=210 kvar=100 model=1
New Load.Load33 bus1=33 phases=3 kv=12.66 kw=60 kvar=40 model=1
